This is mine.
<<<<<<< HEAD
NEW line.
=======
Shiraz Edited
>>>>>>> e60e45a14c22f6a1cd9aab5b0079e267c2bd5785
