This is mine.
NEW line.
Shiraz Edited
Murad Commit.