This is mine.
NEW line.
Shiraz Edited
Not pushed yet
Murad Commit.
Test NEW

Usama Test
<<<<<<< HEAD

Latesst change dont change pls
=======
Usama test 2
>>>>>>> efcb74c0f56e77bae90a5e815e900a053e450386
