This is mine.
NEW line.
Shiraz Edited
Not pushed yet
Murad Commit.
Test NEW

Usama Test
zzzzzz
Usama test 2
Latesst change dont change pls