This is mine.
NEW line.
Shiraz Edited
Not pushed yet
Murad Commit.
Test NEW

Usama Test
<<<<<<< HEAD

Latesst change dont change pls
=======
Usama test 2

16th Line
