This is mine.
NEW line.
Shiraz Edited
Not pushed yet
Murad Commit.
Test NEW

Usama Test
<<<<<<< HEAD
zzzzzz
Usama test 2
=======
Usama test 2
Latesst change dont change pls
>>>>>>> 9cf0a46e4816f510c191f78c768c2ad3b422a58f
16th Line
