This is mine.
NEW line.
Shiraz Edited
Not pushed yet
Murad Commit.
Test NEW

Usama Test
