This is mine.
NEW line.
Shiraz Edited
<<<<<<< HEAD
Murad Commit.
=======
Not pushed yet
>>>>>>> e40d0aefc976f55ff875abf56ef61c83426a2a7f
