This is mine.
NEW line.
Shiraz Edited
Not pushed yet